New England/PSSE Cases/Hard/Spring13Tight.RAW
 0,    100.00, 33, 0, 0, 60.00       / August 22, 2017 10:41:19; Simulator Version 19; BuildDate 2016_7_14


    1,'1           ', 345.0000,2,   1,   1,   1,1.10885, -22.2827, 1.06000, 1.00000, 1.06000, 1.00000
    2,'2           ', 345.0000,1,   1,   1,   1,1.03247, -22.2901, 1.04000, 0.95000, 1.04000, 0.95000
    3,'3           ', 138.0000,2,   1,   1,   1,1.02000, -11.1349, 1.06000, 1.00000, 1.06000, 1.00000
    4,'4           ', 138.0000,1,   1,   1,   1,0.99640, -19.8467, 1.04000, 0.95000, 1.04000, 0.95000
    5,'5           ', 230.0000,1,   1,   1,   1,0.99951, -17.6584, 1.04000, 0.95000, 1.04000, 0.95000
    6,'6           ', 138.0000,1,   1,   1,   1,1.00913, -11.7625, 1.04000, 0.95000, 1.04000, 0.95000
    7,'7           ', 138.0000,2,   1,   1,   1,1.02000, -16.8772, 1.06000, 1.00000, 1.06000, 1.00000
    8,'8           ', 230.0000,2,   1,   1,   1,1.02000, -15.0148, 1.06000, 1.00000, 1.06000, 1.00000
    9,'9           ', 345.0000,1,   1,   1,   1,1.03113, -16.2725, 1.04000, 0.95000, 1.04000, 0.95000
   10,'10          ', 138.0000,3,   1,   1,   1,1.02000,   0.0000, 1.06000, 1.00000, 1.06000, 1.00000
   11,'11          ', 138.0000,1,   1,   1,   1,1.01781,  -0.9807, 1.04000, 0.95000, 1.04000, 0.95000
   12,'12          ', 138.0000,1,   1,   1,   1,1.01744,  -1.7731, 1.04000, 0.95000, 1.04000, 0.95000
   13,'13          ', 345.0000,1,   1,   1,   1,1.01809,  -3.8370, 1.04000, 0.95000, 1.04000, 0.95000
   14,'14          ', 230.0000,1,   1,   1,   1,1.01920, -10.1116, 1.04000, 0.95000, 1.04000, 0.95000
   15,'15          ', 230.0000,1,   1,   1,   1,1.01126, -14.1496, 1.04000, 0.95000, 1.04000, 0.95000
   16,'16          ', 138.0000,1,   1,   1,   1,1.00953, -16.6677, 1.04000, 0.95000, 1.04000, 0.95000
   17,'17          ', 138.0000,1,   1,   1,   1,0.99197, -18.9180, 1.04000, 0.95000, 1.04000, 0.95000
   18,'18          ', 138.0000,1,   1,   1,   1,0.99103, -18.1133, 1.04000, 0.95000, 1.04000, 0.95000
   19,'19          ', 138.0000,1,   1,   1,   1,0.99621, -17.0027, 1.04000, 0.95000, 1.04000, 0.95000
   20,'20          ',  69.0000,1,   1,   1,   1,1.00439, -14.4608, 1.04000, 0.95000, 1.04000, 0.95000
   21,'21          ', 138.0000,1,   1,   1,   1,0.99024, -19.5240, 1.04000, 0.95000, 1.04000, 0.95000
   22,'22          ', 230.0000,1,   1,   1,   1,1.00078,  -6.7503, 1.04000, 0.95000, 1.04000, 0.95000
   23,'23          ', 230.0000,1,   1,   1,   1,1.00536,  -8.4201, 1.04000, 0.95000, 1.04000, 0.95000
   24,'24          ', 230.0000,2,   1,   1,   1,1.01980, -11.4223, 1.06000, 1.00000, 1.06000, 1.00000
   25,'25          ', 230.0000,1,   1,   1,   1,0.99246, -23.9774, 1.04000, 0.95000, 1.04000, 0.95000
   26,'26          ', 345.0000,2,   1,   1,   1,1.02000, -33.6577, 1.06000, 1.00000, 1.06000, 1.00000
   27,'27          ', 230.0000,1,   1,   1,   1,1.00138, -31.2552, 1.04000, 0.95000, 1.04000, 0.95000
   28,'28          ', 138.0000,2,   1,   1,   1,1.02000, -35.1490, 1.06000, 1.00000, 1.06000, 1.00000
   29,'29          ', 138.0000,1,   1,   1,   1,1.00792, -39.0960, 1.04000, 0.95000, 1.04000, 0.95000
   30,'30          ',  14.0000,2,   1,   1,   1,1.02167, -20.8176, 1.06000, 1.00000, 1.06000, 1.00000
   31,'31          ',  14.0000,2,   1,   1,   1,1.00913, -11.7625, 1.06000, 1.00000, 1.06000, 1.00000
   32,'32          ',  14.0000,2,   1,   1,   1,1.02000,   2.1513, 1.06000, 1.00000, 1.06000, 1.00000
   33,'33          ',  14.0000,2,   1,   1,   1,1.02000, -14.2284, 1.06000, 1.00000, 1.06000, 1.00000
   34,'34          ',  14.0000,2,   1,   1,   1,1.02000, -11.5250, 1.06000, 1.00000, 1.06000, 1.00000
   35,'35          ',  14.0000,2,   1,   1,   1,1.01673,   2.1995, 1.06000, 1.00000, 1.06000, 1.00000
   36,'36          ',  14.0000,2,   1,   1,   1,1.02000,  -5.8859, 1.06000, 1.00000, 1.06000, 1.00000
   37,'37          ',  14.0000,2,   1,   1,   1,0.99246, -23.9774, 1.06000, 1.00000, 1.06000, 1.00000
   38,'38          ',  14.0000,2,   1,   1,   1,1.00792, -39.0960, 1.06000, 1.00000, 1.06000, 1.00000
   39,'39          ', 345.0000,1,   1,   1,   1,1.02298, -29.9734, 1.04000, 0.95000, 1.04000, 0.95000
   40,'40          ', 345.0000,1,   1,   1,   1,1.01386, -34.4568, 1.04000, 0.95000, 1.04000, 0.95000
   41,'41          ', 345.0000,1,   1,   1,   1,1.00409, -30.3651, 1.04000, 0.95000, 1.04000, 0.95000
   42,'42          ', 345.0000,1,   1,   1,   1,1.03450, -38.6553, 1.04000, 0.95000, 1.04000, 0.95000
   43,'43          ', 345.0000,1,   1,   1,   1,1.01821, -33.6106, 1.04000, 0.95000, 1.04000, 0.95000
   44,'44          ', 230.0000,1,   1,   1,   1,1.01276, -18.1379, 1.04000, 0.95000, 1.04000, 0.95000
   45,'45          ', 345.0000,1,   1,   1,   1,1.01735, -17.9281, 1.04000, 0.95000, 1.04000, 0.95000
   46,'46          ', 138.0000,1,   1,   1,   1,0.98523, -19.8140, 1.04000, 0.95000, 1.04000, 0.95000
   47,'47          ', 138.0000,1,   1,   1,   1,0.95931, -22.4867, 1.04000, 0.95000, 1.04000, 0.95000
   48,'48          ', 345.0000,1,   1,   1,   1,0.99825, -20.2716, 1.04000, 0.95000, 1.04000, 0.95000
   49,'49          ', 138.0000,2,   1,   1,   1,1.02000, -14.3659, 1.06000, 1.00000, 1.06000, 1.00000
   50,'50          ', 138.0000,1,   1,   1,   1,0.99768, -18.5120, 1.04000, 0.95000, 1.04000, 0.95000
   51,'51          ', 138.0000,1,   1,   1,   1,0.99951, -21.7523, 1.04000, 0.95000, 1.04000, 0.95000
   52,'52          ', 345.0000,2,   1,   1,   1,1.02000, -17.7316, 1.06000, 1.00000, 1.06000, 1.00000
   53,'53          ', 138.0000,1,   1,   1,   1,0.99371, -21.2171, 1.04000, 0.95000, 1.04000, 0.95000
   54,'54          ', 230.0000,2,   1,   1,   1,1.02000, -14.4649, 1.06000, 1.00000, 1.06000, 1.00000
   55,'55          ', 230.0000,1,   1,   1,   1,1.01224, -17.6217, 1.04000, 0.95000, 1.04000, 0.95000
   56,'56          ', 345.0000,2,   1,   1,   1,1.02000, -10.4347, 1.06000, 1.00000, 1.06000, 1.00000
   57,'57          ', 138.0000,1,   1,   1,   1,0.97418, -21.2643, 1.04000, 0.95000, 1.04000, 0.95000
   58,'58          ', 345.0000,1,   1,   1,   1,1.00680, -11.1860, 1.04000, 0.95000, 1.04000, 0.95000
   59,'59          ', 345.0000,1,   1,   1,   1,1.01601, -13.2490, 1.04000, 0.95000, 1.04000, 0.95000
   60,'60          ', 138.0000,1,   1,   1,   1,0.97510, -20.0252, 1.04000, 0.95000, 1.04000, 0.95000
   61,'61          ', 230.0000,1,   1,   1,   1,1.01547, -15.3544, 1.04000, 0.95000, 1.04000, 0.95000
   62,'62          ', 345.0000,1,   1,   1,   1,1.00257, -11.8713, 1.04000, 0.95000, 1.04000, 0.95000
   63,'63          ', 138.0000,1,   1,   1,   1,0.97137, -21.2148, 1.04000, 0.95000, 1.04000, 0.95000
   64,'64          ', 138.0000,1,   1,   1,   1,0.98523, -16.1667, 1.04000, 0.95000, 1.04000, 0.95000
   65,'65          ', 138.0000,1,   1,   1,   1,1.00592, -16.9854, 1.04000, 0.95000, 1.04000, 0.95000
   66,'66          ', 345.0000,1,   1,   1,   1,1.00945, -10.9061, 1.04000, 0.95000, 1.04000, 0.95000
   67,'67          ', 138.0000,1,   1,   1,   1,0.99198, -21.8882, 1.04000, 0.95000, 1.04000, 0.95000
   68,'68          ', 138.0000,1,   1,   1,   1,0.99953, -20.7656, 1.04000, 0.95000, 1.04000, 0.95000
   69,'69          ', 345.0000,2,   1,   1,   1,1.02000,  -3.9095, 1.06000, 1.00000, 1.06000, 1.00000
   70,'70          ', 138.0000,1,   1,   1,   1,1.01352,  -6.5923, 1.04000, 0.95000, 1.04000, 0.95000
   71,'71          ', 345.0000,1,   1,   1,   1,1.01358, -10.3649, 1.04000, 0.95000, 1.04000, 0.95000
   72,'72          ', 138.0000,2,   1,   1,   1,1.00140, -21.6755, 1.06000, 1.00000, 1.06000, 1.00000
   73,'73          ', 138.0000,1,   1,   1,   1,0.99957, -21.7564, 1.04000, 0.95000, 1.04000, 0.95000
   74,'74          ', 345.0000,1,   1,   1,   1,1.00672, -18.2855, 1.04000, 0.95000, 1.04000, 0.95000
   75,'75          ', 138.0000,1,   1,   1,   1,0.98919, -20.1286, 1.04000, 0.95000, 1.04000, 0.95000
   76,'76          ', 345.0000,2,   1,   1,   1,1.02000,  -9.4755, 1.06000, 1.00000, 1.06000, 1.00000
   77,'77          ', 138.0000,1,   1,   1,   1,0.99665, -40.2174, 1.04000, 0.95000, 1.04000, 0.95000
   78,'78          ', 345.0000,2,   1,   1,   1,1.06587, -42.0768, 1.06000, 1.00000, 1.06000, 1.00000
   79,'79          ', 345.0000,1,   1,   1,   1,1.11153, -48.6524, 1.04000, 0.95000, 1.04000, 0.95000
   80,'80          ', 345.0000,2,   1,   1,   1,1.09099, -45.8028, 1.06000, 1.00000, 1.06000, 1.00000
   81,'81          ', 345.0000,1,   1,   1,   1,1.07401, -44.6093, 1.04000, 0.95000, 1.04000, 0.95000
   82,'82          ', 345.0000,2,   1,   1,   1,1.05284, -40.2850, 1.06000, 1.00000, 1.06000, 1.00000
   83,'83          ', 345.0000,1,   1,   1,   1,1.03683, -39.9937, 1.04000, 0.95000, 1.04000, 0.95000
   84,'84          ', 138.0000,2,   1,   1,   1,1.01770, -38.9908, 1.06000, 1.00000, 1.06000, 1.00000
   85,'85          ', 230.0000,1,   1,   1,   1,0.99406, -37.3235, 1.04000, 0.95000, 1.04000, 0.95000
   86,'86          ', 138.0000,1,   1,   1,   1,0.99105, -36.2484, 1.04000, 0.95000, 1.04000, 0.95000
   87,'87          ', 345.0000,1,   1,   1,   1,1.12155, -49.0541, 1.04000, 0.95000, 1.04000, 0.95000
   88,'88          ', 138.0000,1,   1,   1,   1,1.01312, -35.9784, 1.04000, 0.95000, 1.04000, 0.95000
   89,'89          ', 138.0000,1,   1,   1,   1,0.96422, -43.8687, 1.04000, 0.95000, 1.04000, 0.95000
   90,'90          ', 230.0000,1,   1,   1,   1,0.99840,  -9.0142, 1.04000, 0.95000, 1.04000, 0.95000
   91,'91          ', 230.0000,1,   1,   1,   1,0.98756, -10.5118, 1.04000, 0.95000, 1.04000, 0.95000
   92,'92          ', 345.0000,1,   1,   1,   1,0.99302, -11.2386, 1.04000, 0.95000, 1.04000, 0.95000
   93,'93          ', 345.0000,1,   1,   1,   1,0.99407, -12.5672, 1.04000, 0.95000, 1.04000, 0.95000
   94,'94          ', 138.0000,1,   1,   1,   1,0.99880, -18.2881, 1.04000, 0.95000, 1.04000, 0.95000
   95,'95          ', 138.0000,1,   1,   1,   1,0.98966, -17.7092, 1.04000, 0.95000, 1.04000, 0.95000
   96,'96          ', 138.0000,1,   1,   1,   1,0.99087, -17.3212, 1.04000, 0.95000, 1.04000, 0.95000
   97,'97          ', 345.0000,1,   1,   1,   1,1.00069, -14.7879, 1.04000, 0.95000, 1.04000, 0.95000
   98,'98          ', 345.0000,1,   1,   1,   1,1.01228, -14.9339, 1.04000, 0.95000, 1.04000, 0.95000
   99,'99          ', 345.0000,1,   1,   1,   1,0.99160, -16.6155, 1.04000, 0.95000, 1.04000, 0.95000
  100,'100         ', 138.0000,1,   1,   1,   1,0.98505,  -8.3804, 1.04000, 0.95000, 1.04000, 0.95000
  101,'101         ', 345.0000,1,   1,   1,   1,0.99198, -12.8744, 1.04000, 0.95000, 1.04000, 0.95000
  102,'102         ', 138.0000,1,   1,   1,   1,0.98952, -18.9286, 1.04000, 0.95000, 1.04000, 0.95000
  103,'103         ', 138.0000,2,   1,   1,   1,1.02000, -16.5341, 1.06000, 1.00000, 1.06000, 1.00000
  104,'104         ', 138.0000,1,   1,   1,   1,0.98036, -19.5835, 1.04000, 0.95000, 1.04000, 0.95000
  105,'105         ', 138.0000,1,   1,   1,   1,0.98940, -18.2568, 1.04000, 0.95000, 1.04000, 0.95000
  106,'106         ', 138.0000,1,   1,   1,   1,0.97254, -21.3801, 1.04000, 0.95000, 1.04000, 0.95000
  107,'107         ', 138.0000,1,   1,   1,   1,0.97480, -20.7284, 1.04000, 0.95000, 1.04000, 0.95000
  108,'108         ', 230.0000,1,   1,   1,   1,0.97823, -20.1548, 1.04000, 0.95000, 1.04000, 0.95000
  109,'109         ', 138.0000,1,   1,   1,   1,0.96456, -23.4652, 1.04000, 0.95000, 1.04000, 0.95000
  110,'110         ', 138.0000,1,   1,   1,   1,0.99036, -17.5828, 1.04000, 0.95000, 1.04000, 0.95000
  111,'111         ', 345.0000,1,   1,   1,   1,0.98407, -18.7668, 1.04000, 0.95000, 1.04000, 0.95000
  112,'112         ', 138.0000,1,   1,   1,   1,0.96895, -22.1886, 1.04000, 0.95000, 1.04000, 0.95000
  113,'113         ', 138.0000,1,   1,   1,   1,0.96208, -22.9042, 1.04000, 0.95000, 1.04000, 0.95000
  114,'114         ', 138.0000,1,   1,   1,   1,0.98729, -18.8100, 1.04000, 0.95000, 1.04000, 0.95000
  115,'115         ', 345.0000,1,   1,   1,   1,0.99570, -10.8496, 1.04000, 0.95000, 1.04000, 0.95000
  116,'116         ', 230.0000,1,   1,   1,   1,0.97712, -22.8518, 1.04000, 0.95000, 1.04000, 0.95000
  117,'117         ', 138.0000,1,   1,   1,   1,0.98703, -23.1685, 1.04000, 0.95000, 1.04000, 0.95000
  118,'118         ', 138.0000,1,   1,   1,   1,0.98591, -19.0672, 1.04000, 0.95000, 1.04000, 0.95000
  119,'119         ', 138.0000,1,   1,   1,   1,0.97995, -20.1078, 1.04000, 0.95000, 1.04000, 0.95000
  120,'120         ', 230.0000,2,   1,   1,   1,0.97473, -22.5246, 1.04000, 0.95000, 1.04000, 0.95000
  121,'121         ', 230.0000,1,   1,   1,   1,0.97077, -22.9631, 1.04000, 0.95000, 1.04000, 0.95000
  122,'122         ', 138.0000,1,   1,   1,   1,0.97050, -24.2791, 1.04000, 0.95000, 1.04000, 0.95000
  123,'123         ', 230.0000,1,   1,   1,   1,0.98570, -22.3183, 1.04000, 0.95000, 1.04000, 0.95000
  124,'124         ', 230.0000,1,   1,   1,   1,0.97248, -24.4324, 1.04000, 0.95000, 1.04000, 0.95000
  125,'125         ', 138.0000,1,   1,   1,   1,0.98168, -21.0307, 1.04000, 0.95000, 1.04000, 0.95000
  126,'126         ', 230.0000,1,   1,   1,   1,0.96973, -24.1139, 1.04000, 0.95000, 1.04000, 0.95000
  127,'127         ', 230.0000,1,   1,   1,   1,0.97291, -24.8029, 1.04000, 0.95000, 1.04000, 0.95000
  128,'128         ', 138.0000,2,   1,   1,   1,1.02000, -13.4157, 1.06000, 1.00000, 1.06000, 1.00000
  129,'129         ', 138.0000,1,   1,   1,   1,0.97950, -20.9614, 1.04000, 0.95000, 1.04000, 0.95000
  130,'130         ', 138.0000,2,   1,   1,   1,1.02000, -16.0678, 1.06000, 1.00000, 1.06000, 1.00000
  131,'131         ', 138.0000,1,   1,   1,   1,0.97242, -22.1032, 1.04000, 0.95000, 1.04000, 0.95000
  132,'132         ', 230.0000,1,   1,   1,   1,0.98871, -21.4755, 1.04000, 0.95000, 1.04000, 0.95000
  133,'133         ', 230.0000,1,   1,   1,   1,0.98163, -23.1493, 1.04000, 0.95000, 1.04000, 0.95000
  134,'134         ', 230.0000,1,   1,   1,   1,0.98574, -21.1206, 1.04000, 0.95000, 1.04000, 0.95000
  135,'135         ', 345.0000,1,   1,   1,   1,1.00396, -17.5139, 1.04000, 0.95000, 1.04000, 0.95000
  136,'136         ', 138.0000,1,   1,   1,   1,0.98366, -19.1822, 1.04000, 0.95000, 1.04000, 0.95000
  137,'137         ', 345.0000,1,   1,   1,   1,1.00959, -16.4405, 1.04000, 0.95000, 1.04000, 0.95000
  138,'138         ', 345.0000,1,   1,   1,   1,0.98833, -17.3087, 1.04000, 0.95000, 1.04000, 0.95000
  139,'139         ', 345.0000,1,   1,   1,   1,1.02671, -23.2822, 1.04000, 0.95000, 1.04000, 0.95000
  140,'140         ', 138.0000,1,   1,   1,   1,0.99407,  -7.1764, 1.04000, 0.95000, 1.04000, 0.95000
  141,'141         ', 345.0000,2,   1,   1,   1,1.01369,  -3.9666, 1.06000, 1.00000, 1.06000, 1.00000
  142,'142         ', 230.0000,1,   1,   1,   1,0.97709, -23.6942, 1.04000, 0.95000, 1.04000, 0.95000
  143,'143         ', 230.0000,2,   1,   1,   1,1.02000, -15.5599, 1.06000, 1.00000, 1.06000, 1.00000
  144,'144         ', 230.0000,1,   1,   1,   1,1.01278, -16.6656, 1.04000, 0.95000, 1.04000, 0.95000
  145,'145         ', 138.0000,1,   1,   1,   1,0.99626, -17.0198, 1.04000, 0.95000, 1.04000, 0.95000
  146,'146         ', 345.0000,2,   1,   1,   1,1.01347, -15.7865, 1.06000, 1.00000, 1.06000, 1.00000
  147,'147         ', 138.0000,1,   1,   1,   1,0.97841, -20.3531, 1.04000, 0.95000, 1.04000, 0.95000
  148,'148         ', 345.0000,1,   1,   1,   1,0.99484, -12.0456, 1.04000, 0.95000, 1.04000, 0.95000
  149,'149         ', 138.0000,2,   1,   1,   1,1.02000, -14.9987, 1.06000, 1.00000, 1.06000, 1.00000
  150,'150         ', 345.0000,1,   1,   1,   1,0.99197, -21.3889, 1.04000, 0.95000, 1.04000, 0.95000
  151,'151         ', 345.0000,1,   1,   1,   1,1.01094, -16.2768, 1.04000, 0.95000, 1.04000, 0.95000
  152,'152         ', 138.0000,1,   1,   1,   1,0.96724, -22.2735, 1.04000, 0.95000, 1.04000, 0.95000
  153,'153         ', 345.0000,1,   1,   1,   1,1.00128, -17.9944, 1.04000, 0.95000, 1.04000, 0.95000
  154,'154         ', 230.0000,1,   1,   1,   1,0.99160, -32.3245, 1.04000, 0.95000, 1.04000, 0.95000
  155,'155         ', 138.0000,1,   1,   1,   1,0.97795, -32.6956, 1.04000, 0.95000, 1.04000, 0.95000
  156,'156         ', 345.0000,1,   1,   1,   1,1.00277, -27.3201, 1.04000, 0.95000, 1.04000, 0.95000
  157,'157         ', 138.0000,2,   1,   1,   1,1.02000, -23.4013, 1.06000, 1.00000, 1.06000, 1.00000
  158,'158         ', 138.0000,1,   1,   1,   1,0.99469, -26.3300, 1.04000, 0.95000, 1.04000, 0.95000
  159,'159         ', 345.0000,1,   1,   1,   1,1.00918, -27.9232, 1.04000, 0.95000, 1.04000, 0.95000
  160,'160         ', 230.0000,1,   1,   1,   1,0.98032, -33.3163, 1.04000, 0.95000, 1.04000, 0.95000
  161,'161         ', 138.0000,1,   1,   1,   1,0.99843, -27.1498, 1.04000, 0.95000, 1.04000, 0.95000
  162,'162         ', 345.0000,2,   1,   1,   1,1.02000, -20.6465, 1.06000, 1.00000, 1.06000, 1.00000
  163,'163         ', 230.0000,1,   1,   1,   1,1.00507, -24.5181, 1.04000, 0.95000, 1.04000, 0.95000
  164,'164         ', 138.0000,1,   1,   1,   1,0.98280, -24.7882, 1.04000, 0.95000, 1.04000, 0.95000
  165,'165         ', 230.0000,2,   1,   1,   1,1.02000, -17.9533, 1.06000, 1.00000, 1.06000, 1.00000
  166,'166         ', 138.0000,2,   1,   1,   1,1.02000, -22.8798, 1.06000, 1.00000, 1.06000, 1.00000
  167,'167         ', 345.0000,1,   1,   1,   1,1.05276, -40.7854, 1.04000, 0.95000, 1.04000, 0.95000
  168,'168         ', 230.0000,1,   1,   1,   1,0.97874, -25.0610, 1.04000, 0.95000, 1.04000, 0.95000
  169,'169         ', 138.0000,1,   1,   1,   1,0.99499, -29.4299, 1.04000, 0.95000, 1.04000, 0.95000
  170,'170         ', 138.0000,1,   1,   1,   1,0.96566, -10.0781, 1.04000, 0.95000, 1.04000, 0.95000
  171,'171         ', 138.0000,1,   1,   1,   1,0.97111,  -9.7118, 1.04000, 0.95000, 1.04000, 0.95000
  172,'172         ', 138.0000,1,   1,   1,   1,0.98797,  -7.4152, 1.04000, 0.95000, 1.04000, 0.95000
  173,'173         ', 138.0000,1,   1,   1,   1,0.98625,  -6.9879, 1.04000, 0.95000, 1.04000, 0.95000
  174,'174         ', 345.0000,1,   1,   1,   1,1.01503, -11.5625, 1.04000, 0.95000, 1.04000, 0.95000
  175,'175         ', 138.0000,2,   1,   1,   1,1.02000, -11.0437, 1.06000, 1.00000, 1.06000, 1.00000
  176,'176         ', 345.0000,2,   1,   1,   1,1.02000, -15.6862, 1.06000, 1.00000, 1.06000, 1.00000
  177,'177         ', 230.0000,1,   1,   1,   1,1.01216, -12.4465, 1.04000, 0.95000, 1.04000, 0.95000
  178,'178         ', 138.0000,1,   1,   1,   1,0.99975, -15.2123, 1.04000, 0.95000, 1.04000, 0.95000
  179,'179         ', 138.0000,1,   1,   1,   1,0.99902, -15.2669, 1.04000, 0.95000, 1.04000, 0.95000
  180,'180         ', 345.0000,1,   1,   1,   1,1.01508, -11.6087, 1.04000, 0.95000, 1.04000, 0.95000
  181,'181         ', 345.0000,1,   1,   1,   1,1.03388, -15.6989, 1.04000, 0.95000, 1.04000, 0.95000
  182,'182         ', 345.0000,1,   1,   1,   1,1.00831, -18.0788, 1.04000, 0.95000, 1.04000, 0.95000
  183,'183         ', 345.0000,1,   1,   1,   1,1.01346, -17.8570, 1.04000, 0.95000, 1.04000, 0.95000
  184,'184         ', 230.0000,1,   1,   1,   1,1.01260, -12.6262, 1.04000, 0.95000, 1.04000, 0.95000
  185,'185         ', 345.0000,1,   1,   1,   1,1.01211, -10.0070, 1.04000, 0.95000, 1.04000, 0.95000
  186,'186         ', 345.0000,1,   1,   1,   1,1.01263, -17.9991, 1.04000, 0.95000, 1.04000, 0.95000
  187,'187         ', 345.0000,1,   1,   1,   1,1.02094, -16.1900, 1.04000, 0.95000, 1.04000, 0.95000
  188,'188         ', 345.0000,1,   1,   1,   1,1.01828,  -3.3402, 1.04000, 0.95000, 1.04000, 0.95000
  189,'189         ', 345.0000,1,   1,   1,   1,1.01788,  -3.9077, 1.04000, 0.95000, 1.04000, 0.95000
  190,'190         ', 345.0000,1,   1,   1,   1,1.01854,  -8.7050, 1.04000, 0.95000, 1.04000, 0.95000
  191,'191         ', 345.0000,1,   1,   1,   1,1.01855, -12.5738, 1.04000, 0.95000, 1.04000, 0.95000
  192,'192         ', 230.0000,1,   1,   1,   1,1.01371, -16.2425, 1.04000, 0.95000, 1.04000, 0.95000
  193,'193         ', 345.0000,1,   1,   1,   1,1.01685, -15.6149, 1.04000, 0.95000, 1.04000, 0.95000
  194,'194         ', 345.0000,1,   1,   1,   1,1.01425, -17.6929, 1.04000, 0.95000, 1.04000, 0.95000
  195,'195         ', 230.0000,1,   1,   1,   1,0.98484, -19.0929, 1.04000, 0.95000, 1.04000, 0.95000
  196,'196         ', 345.0000,1,   1,   1,   1,0.98701, -17.6655, 1.04000, 0.95000, 1.04000, 0.95000
  197,'197         ', 230.0000,1,   1,   1,   1,0.99373, -19.3998, 1.04000, 0.95000, 1.04000, 0.95000
  198,'198         ', 345.0000,1,   1,   1,   1,0.99280, -17.0414, 1.04000, 0.95000, 1.04000, 0.95000
  199,'199         ', 345.0000,1,   1,   1,   1,0.99872, -10.3559, 1.04000, 0.95000, 1.04000, 0.95000
  200,'200         ', 345.0000,1,   1,   1,   1,1.01399, -13.0305, 1.04000, 0.95000, 1.04000, 0.95000
...
0 / END OF BUS DATA, BEGIN LOAD DATA
    1,'1 ',1,   1,   1,     0.000,     0.000,     0.000,     0.000,     0.000,     0.000,   1,1
    2,'1 ',1,   1,   1,    85.566,    25.158,     0.000,     0.000,     0.000,     0.000,   1,1
    3,'1 ',1,   1,   1,     0.000,     0.000,     0.000,     0.000,     0.000,     0.000,   1,1
    4,'1 ',1,   1,   1,    60.455,    16.120,     0.000,     0.000,     0.000,     0.000,   1,1
    5,'1 ',1,   1,   1,    66.120,    22.568,     0.000,     0.000,     0.000,     0.000,   1,1
    6,'1 ',1,   1,   1,    60.519,    18.884,     0.000,     0.000,     0.000,     0.000,   1,1
    7,'1 ',1,   1,   1,    97.276,    32.775,     0.000,     0.000,     0.000,     0.000,   1,1
    8,'1 ',1,   1,   1,    85.689,    25.213,     0.000,     0.000,     0.000,     0.000,   1,1
    9,'1 ',1,   1,   1,     0.000,     0.000,     0.000,     0.000,     0.000,     0.000,   1,1
   10,'1 ',1,   1,   1,    61.986,    20.286,     0.000,     0.000,     0.000,     0.000,   1,1
   11,'1 ',1,   1,   1,     0.000,     0.000,     0.000,     0.000,     0.000,     0.000,   1,1
   12,'1 ',1,   1,   1,     1.850,     0.558,     0.000,     0.000,     0.000,     0.000,   1,1
   13,'1 ',1,   1,   1,     0.000,     0.000,     0.000,     0.000,     0.000,     0.000,   1,1
   14,'1 ',1,   1,   1,    83.346,    23.661,     0.000,     0.000,     0.000,     0.000,   1,1
   15,'1 ',1,   1,   1,   102.759,    23.211,     0.000,     0.000,     0.000,     0.000,   1,1
   16,'1 ',1,   1,   1,   123.347,    26.765,     0.000,     0.000,     0.000,     0.000,   1,1
   17,'1 ',1,   1,   1,    61.431,    19.108,     0.000,     0.000,     0.000,     0.000,   1,1
   18,'1 ',1,   1,   1,    71.518,    20.903,     0.000,     0.000,     0.000,     0.000,   1,1
   19,'1 ',1,   1,   1,    74.690,    21.822,     0.000,     0.000,     0.000,     0.000,   1,1
   20,'1 ',1,   1,   1,    71.990,    23.671,     0.000,     0.000,     0.000,     0.000,   1,1
   21,'1 ',1,   1,   1,   106.640,    24.782,     0.000,     0.000,     0.000,     0.000,   1,1
   22,'1 ',1,   1,   1,    94.448,    25.656,     0.000,     0.000,     0.000,     0.000,   1,1
   23,'1 ',1,   1,   1,    69.245,    18.621,     0.000,     0.000,     0.000,     0.000,   1,1
   24,'1 ',1,   1,   1,    82.223,    24.678,     0.000,     0.000,     0.000,     0.000,   1,1
   25,'1 ',1,   1,   1,    59.127,    14.663,     0.000,     0.000,     0.000,     0.000,   1,1
   26,'1 ',1,   1,   1,    71.169,    19.549,     0.000,     0.000,     0.000,     0.000,   1,1
   27,'1 ',1,   1,   1,    69.411,    21.853,     0.000,     0.000,     0.000,     0.000,   1,1
   28,'1 ',1,   1,   1,   111.791,    34.355,     0.000,     0.000,     0.000,     0.000,   1,1
   29,'1 ',1,   1,   1,    66.465,    15.618,     0.000,     0.000,     0.000,     0.000,   1,1
   30,'1 ',1,   1,   1,     0.000,     0.000,     0.000,     0.000,     0.000,     0.000,   1,1
   31,'1 ',1,   1,   1,     0.000,     0.000,     0.000,     0.000,     0.000,     0.000,   1,1
   32,'1 ',1,   1,   1,     0.000,     0.000,     0.000,     0.000,     0.000,     0.000,   1,1
   33,'1 ',1,   1,   1,    99.709,    22.882,     0.000,     0.000,     0.000,     0.000,   1,1
   34,'1 ',1,   1,   1,    57.854,    18.952,     0.000,     0.000,     0.000,     0.000,   1,1
   35,'1 ',1,   1,   1,     0.000,     0.000,     0.000,     0.000,     0.000,     0.000,   1,1
   36,'1 ',1,   1,   1,     0.000,     0.000,     0.000,     0.000,     0.000,     0.000,   1,1
   37,'1 ',1,   1,   1,     0.000,     0.000,     0.000,     0.000,     0.000,     0.000,   1,1
   38,'1 ',1,   1,   1,     0.000,     0.000,     0.000,     0.000,     0.000,     0.000,   1,1
   39,'1 ',1,   1,   1,    65.665,    19.574,     0.000,     0.000,     0.000,     0.000,   1,1
   40,'1 ',1,   1,   1,    67.143,    20.305,     0.000,     0.000,     0.000,     0.000,   1,1
   41,'1 ',1,   1,   1,    90.160,    22.871,     0.000,     0.000,     0.000,     0.000,   1,1
   42,'1 ',1,   1,   1,   101.076,    28.330,     0.000,     0.000,     0.000,     0.000,   1,1
   43,'1 ',1,   1,   1,    89.093,    30.116,     0.000,     0.000,     0.000,     0.000,   1,1
   44,'1 ',1,   1,   1,    56.787,    19.400,     0.000,     0.000,     0.000,     0.000,   1,1
   45,'1 ',1,   1,   1,    85.989,    24.077,     0.000,     0.000,     0.000,     0.000,   1,1
   46,'1 ',1,   1,   1,    76.743,    21.293,     0.000,     0.000,     0.000,     0.000,   1,1
   47,'1 ',1,   1,   1,    68.030,    20.161,     0.000,     0.000,     0.000,     0.000,   1,1
   48,'1 ',1,   1,   1,    83.597,    21.822,     0.000,     0.000,     0.000,     0.000,   1,1
   49,'1 ',1,   1,   1,    50.798,    14.437,     0.000,     0.000,     0.000,     0.000,   1,1
   50,'1 ',1,   1,   1,    80.728,    22.046,     0.000,     0.000,     0.000,     0.000,   1,1
   51,'1 ',1,   1,   1,    66.527,    19.647,     0.000,     0.000,     0.000,     0.000,   1,1
   52,'1 ',1,   1,   1,    87.821,    27.918,     0.000,     0.000,     0.000,     0.000,   1,1
   53,'1 ',1,   1,   1,   133.273,    32.301,     0.000,     0.000,     0.000,     0.000,   1,1
   54,'1 ',1,   1,   1,    53.379,    17.578,     0.000,     0.000,     0.000,     0.000,   1,1
   55,'1 ',1,   1,   1,    83.163,    24.659,     0.000,     0.000,     0.000,     0.000,   1,1
   56,'1 ',1,   1,   1,    93.917,    22.053,     0.000,     0.000,     0.000,     0.000,   1,1
   57,'1 ',1,   1,   1,    46.292,    16.253,     0.000,     0.000,     0.000,     0.000,   1,1
   58,'1 ',1,   1,   1,   108.811,    33.346,     0.000,     0.000,     0.000,     0.000,   1,1
   59,'1 ',1,   1,   1,    64.316,    21.274,     0.000,     0.000,     0.000,     0.000,   1,1
   60,'1 ',1,   1,   1,    73.949,    23.664,     0.000,     0.000,     0.000,     0.000,   1,1
   61,'1 ',1,   1,   1,    89.761,    24.835,     0.000,     0.000,     0.000,     0.000,   1,1
   62,'1 ',1,   1,   1,    83.592,    22.548,     0.000,     0.000,     0.000,     0.000,   1,1
   63,'1 ',1,   1,   1,    62.360,    20.416,     0.000,     0.000,     0.000,     0.000,   1,1
   64,'1 ',1,   1,   1,   141.686,    39.504,     0.000,     0.000,     0.000,     0.000,   1,1
   65,'1 ',1,   1,   1,    52.650,    17.539,     0.000,     0.000,     0.000,     0.000,   1,1
   66,'1 ',1,   1,   1,    61.808,    19.587,     0.000,     0.000,     0.000,     0.000,   1,1
   67,'1 ',1,   1,   1,    75.377,    19.761,     0.000,     0.000,     0.000,     0.000,   1,1
   68,'1 ',1,   1,   1,    92.374,    28.514,     0.000,     0.000,     0.000,     0.000,   1,1
   69,'1 ',1,   1,   1,    48.357,    16.182,     0.000,     0.000,     0.000,     0.000,   1,1
   70,'1 ',1,   1,   1,    71.150,    20.444,     0.000,     0.000,     0.000,     0.000,   1,1
   71,'1 ',1,   1,   1,    54.295,    17.210,     0.000,     0.000,     0.000,     0.000,   1,1
   72,'1 ',1,   1,   1,    47.682,    17.102,     0.000,     0.000,     0.000,     0.000,   1,1
   73,'1 ',1,   1,   1,    58.600,    17.714,     0.000,     0.000,     0.000,     0.000,   1,1
   74,'1 ',1,   1,   1,    64.483,    22.366,     0.000,     0.000,     0.000,     0.000,   1,1
   75,'1 ',1,   1,   1,    69.350,    24.449,     0.000,     0.000,     0.000,     0.000,   1,1
   76,'1 ',1,   1,   1,    96.354,    26.753,     0.000,     0.000,     0.000,     0.000,   1,1
   77,'1 ',1,   1,   1,    67.482,    19.267,     0.000,     0.000,     0.000,     0.000,   1,1
   78,'1 ',1,   1,   1,    84.025,    22.437,     0.000,     0.000,     0.000,     0.000,   1,1
   79,'1 ',1,   1,   1,   114.314,    31.271,     0.000,     0.000,     0.000,     0.000,   1,1
   80,'1 ',1,   1,   1,    90.939,    21.907,     0.000,     0.000,     0.000,     0.000,   1,1
   81,'1 ',1,   1,   1,    98.242,    26.895,     0.000,     0.000,     0.000,     0.000,   1,1
   82,'1 ',1,   1,   1,    66.477,    18.610,     0.000,     0.000,     0.000,     0.000,   1,1
   83,'1 ',1,   1,   1,    69.855,    22.825,     0.000,     0.000,     0.000,     0.000,   1,1
   84,'1 ',1,   1,   1,    52.314,    16.359,     0.000,     0.000,     0.000,     0.000,   1,1
   85,'1 ',1,   1,   1,    58.665,    14.976,     0.000,     0.000,     0.000,     0.000,   1,1
   86,'1 ',1,   1,   1,    94.385,    23.851,     0.000,     0.000,     0.000,     0.000,   1,1
   87,'1 ',1,   1,   1,   107.022,    29.162,     0.000,     0.000,     0.000,     0.000,   1,1
   88,'1 ',1,   1,   1,    83.523,    21.541,     0.000,     0.000,     0.000,     0.000,   1,1
   89,'1 ',1,   1,   1,    64.501,    20.327,     0.000,     0.000,     0.000,     0.000,   1,1
   90,'1 ',1,   1,   1,    56.129,    16.642,     0.000,     0.000,     0.000,     0.000,   1,1
   91,'1 ',1,   1,   1,    70.058,    19.279,     0.000,     0.000,     0.000,     0.000,   1,1
   92,'1 ',1,   1,   1,    65.339,    20.008,     0.000,     0.000,     0.000,     0.000,   1,1
   93,'1 ',1,   1,   1,    74.297,    21.784,     0.000,     0.000,     0.000,     0.000,   1,1
   94,'1 ',1,   1,   1,    93.651,    26.811,     0.000,     0.000,     0.000,     0.000,   1,1
   95,'1 ',1,   1,   1,    84.008,    25.669,     0.000,     0.000,     0.000,     0.000,   1,1
   96,'1 ',1,   1,   1,    97.548,    24.422,     0.000,     0.000,     0.000,     0.000,   1,1
   97,'1 ',1,   1,   1,    96.276,    20.405,     0.000,     0.000,     0.000,     0.000,   1,1
   98,'1 ',1,   1,   1,    99.519,    30.685,     0.000,     0.000,     0.000,     0.000,   1,1
   99,'1 ',1,   1,   1,    95.464,    19.776,     0.000,     0.000,     0.000,     0.000,   1,1
  100,'1 ',1,   1,   1,    72.570,    21.132,     0.000,     0.000,     0.000,     0.000,   1,1
  101,'1 ',1,   1,   1,    68.727,    19.326,     0.000,     0.000,     0.000,     0.000,   1,1
  102,'1 ',1,   1,   1,    44.061,    15.868,     0.000,     0.000,     0.000,     0.000,   1,1
  103,'1 ',1,   1,   1,   111.419,    33.425,     0.000,     0.000,     0.000,     0.000,   1,1
  104,'1 ',1,   1,   1,    80.049,    19.486,     0.000,     0.000,     0.000,     0.000,   1,1
  105,'1 ',1,   1,   1,    58.656,    16.276,     0.000,     0.000,     0.000,     0.000,   1,1
  106,'1 ',1,   1,   1,    58.376,    19.856,     0.000,     0.000,     0.000,     0.000,   1,1
  107,'1 ',1,   1,   1,    69.530,    18.246,     0.000,     0.000,     0.000,     0.000,   1,1
  108,'1 ',1,   1,   1,   118.152,    28.643,     0.000,     0.000,     0.000,     0.000,   1,1
  109,'1 ',1,   1,   1,    85.976,    26.360,     0.000,     0.000,     0.000,     0.000,   1,1
  110,'1 ',1,   1,   1,    45.247,    14.812,     0.000,     0.000,     0.000,     0.000,   1,1
  111,'1 ',1,   1,   1,    83.387,    22.018,     0.000,     0.000,     0.000,     0.000,   1,1
  112,'1 ',1,   1,   1,   114.226,    28.772,     0.000,     0.000,     0.000,     0.000,   1,1
  113,'1 ',1,   1,   1,    43.727,    13.369,     0.000,     0.000,     0.000,     0.000,   1,1
  114,'1 ',1,   1,   1,    45.964,    15.853,     0.000,     0.000,     0.000,     0.000,   1,1
  115,'1 ',1,   1,   1,    52.249,    14.814,     0.000,     0.000,     0.000,     0.000,   1,1
  116,'1 ',1,   1,   1,   102.646,    25.213,     0.000,     0.000,     0.000,     0.000,   1,1
  117,'1 ',1,   1,   1,    76.733,    21.241,     0.000,     0.000,     0.000,     0.000,   1,1
  118,'1 ',1,   1,   1,    45.124,    14.349,     0.000,     0.000,     0.000,     0.000,   1,1
  119,'1 ',1,   1,   1,    97.152,    24.411,     0.000,     0.000,     0.000,     0.000,   1,1
  120,'1 ',1,   1,   1,    58.615,    17.431,     0.000,     0.000,     0.000,     0.000,   1,1
  121,'1 ',1,   1,   1,    72.102,    19.538,     0.000,     0.000,     0.000,     0.000,   1,1
  122,'1 ',1,   1,   1,    58.709,    15.506,     0.000,     0.000,     0.000,     0.000,   1,1
  123,'1 ',1,   1,   1,    87.955,    19.332,     0.000,     0.000,     0.000,     0.000,   1,1
  124,'1 ',1,   1,   1,    89.252,    24.011,     0.000,     0.000,     0.000,     0.000,   1,1
  125,'1 ',1,   1,   1,    93.235,    27.937,     0.000,     0.000,     0.000,     0.000,   1,1
  126,'1 ',1,   1,   1,    76.959,    23.313,     0.000,     0.000,     0.000,     0.000,   1,1
  127,'1 ',1,   1,   1,    89.273,    23.295,     0.000,     0.000,     0.000,     0.000,   1,1
  128,'1 ',1,   1,   1,    97.278,    22.520,     0.000,     0.000,     0.000,     0.000,   1,1
  129,'1 ',1,   1,   1,    72.059,    20.042,     0.000,     0.000,     0.000,     0.000,   1,1
  130,'1 ',1,   1,   1,    78.299,    24.377,     0.000,     0.000,     0.000,     0.000,   1,1
  131,'1 ',1,   1,   1,   108.822,    22.550,     0.000,     0.000,     0.000,     0.000,   1,1
  132,'1 ',1,   1,   1,   100.315,    23.122,     0.000,     0.000,     0.000,     0.000,   1,1
  133,'1 ',1,   1,   1,    63.076,    17.450,     0.000,     0.000,     0.000,     0.000,   1,1
  134,'1 ',1,   1,   1,    75.299,    17.030,     0.000,     0.000,     0.000,     0.000,   1,1
  135,'1 ',1,   1,   1,    54.240,    17.701,     0.000,     0.000,     0.000,     0.000,   1,1
  136,'1 ',1,   1,   1,    67.545,    18.971,     0.000,     0.000,     0.000,     0.000,   1,1
  137,'1 ',1,   1,   1,    53.394,    18.732,     0.000,     0.000,     0.000,     0.000,   1,1
  138,'1 ',1,   1,   1,    94.968,    20.566,     0.000,     0.000,     0.000,     0.000,   1,1
  139,'1 ',1,   1,   1,    81.085,    23.993,     0.000,     0.000,     0.000,     0.000,   1,1
  140,'1 ',1,   1,   1,   109.005,    28.059,     0.000,     0.000,     0.000,     0.000,   1,1
  141,'1 ',1,   1,   1,    97.984,    26.498,     0.000,     0.000,     0.000,     0.000,   1,1
  142,'1 ',1,   1,   1,    63.621,    21.902,     0.000,     0.000,     0.000,     0.000,   1,1
  143,'1 ',1,   1,   1,    93.067,    24.287,     0.000,     0.000,     0.000,     0.000,   1,1
  144,'1 ',1,   1,   1,   111.420,    28.297,     0.000,     0.000,     0.000,     0.000,   1,1
  145,'1 ',1,   1,   1,    85.556,    25.804,     0.000,     0.000,     0.000,     0.000,   1,1
  146,'1 ',1,   1,   1,    91.369,    22.433,     0.000,     0.000,     0.000,     0.000,   1,1
  147,'1 ',1,   1,   1,    55.461,    18.349,     0.000,     0.000,     0.000,     0.000,   1,1
  148,'1 ',1,   1,   1,    65.634,    18.502,     0.000,     0.000,     0.000,     0.000,   1,1
  149,'1 ',1,   1,   1,   114.293,    28.757,     0.000,     0.000,     0.000,     0.000,   1,1
  150,'1 ',1,   1,   1,    80.904,    23.661,     0.000,     0.000,     0.000,     0.000,   1,1
  151,'1 ',1,   1,   1,    67.550,    19.345,     0.000,     0.000,     0.000,     0.000,   1,1
  152,'1 ',1,   1,   1,    54.238,    15.587,     0.000,     0.000,     0.000,     0.000,   1,1
  153,'1 ',1,   1,   1,    62.962,    18.572,     0.000,     0.000,     0.000,     0.000,   1,1
  154,'1 ',1,   1,   1,    78.327,    20.655,     0.000,     0.000,     0.000,     0.000,   1,1
  155,'1 ',1,   1,   1,    75.396,    20.986,     0.000,     0.000,     0.000,     0.000,   1,1
  156,'1 ',1,   1,   1,    77.492,    21.161,     0.000,     0.000,     0.000,     0.000,   1,1
  157,'1 ',1,   1,   1,    77.463,    21.674,     0.000,     0.000,     0.000,     0.000,   1,1
  158,'1 ',1,   1,   1,    77.289,    21.839,     0.000,     0.000,     0.000,     0.000,   1,1
  159,'1 ',1,   1,   1,    81.202,    24.362,     0.000,     0.000,     0.000,     0.000,   1,1
  160,'1 ',1,   1,   1,    98.555,    31.333,     0.000,     0.000,     0.000,     0.000,   1,1
  161,'1 ',1,   1,   1,    49.665,    16.236,     0.000,     0.000,     0.000,     0.000,   1,1
  162,'1 ',1,   1,   1,    72.774,    18.650,     0.000,     0.000,     0.000,     0.000,   1,1
  163,'1 ',1,   1,   1,    93.573,    24.140,     0.000,     0.000,     0.000,     0.000,   1,1
  164,'1 ',1,   1,   1,    68.516,    23.851,     0.000,     0.000,     0.000,     0.000,   1,1
  165,'1 ',1,   1,   1,    74.354,    22.037,     0.000,     0.000,     0.000,     0.000,   1,1
  166,'1 ',1,   1,   1,    69.516,    19.700,     0.000,     0.000,     0.000,     0.000,   1,1
  167,'1 ',1,   1,   1,    69.729,    19.250,     0.000,     0.000,     0.000,     0.000,   1,1
  168,'1 ',1,   1,   1,    45.069,    14.633,     0.000,     0.000,     0.000,     0.000,   1,1
  169,'1 ',1,   1,   1,    72.996,    20.665,     0.000,     0.000,     0.000,     0.000,   1,1
  170,'1 ',1,   1,   1,    80.300,    24.748,     0.000,     0.000,     0.000,     0.000,   1,1
  171,'1 ',1,   1,   1,    68.595,    22.442,     0.000,     0.000,     0.000,     0.000,   1,1
  172,'1 ',1,   1,   1,    81.107,    23.434,     0.000,     0.000,     0.000,     0.000,   1,1
  173,'1 ',1,   1,   1,    70.505,    22.840,     0.000,     0.000,     0.000,     0.000,   1,1
  174,'1 ',1,   1,   1,    86.944,    22.829,     0.000,     0.000,     0.000,     0.000,   1,1
  175,'1 ',1,   1,   1,    69.528,    23.818,     0.000,     0.000,     0.000,     0.000,   1,1
  176,'1 ',1,   1,   1,    85.415,    29.138,     0.000,     0.000,     0.000,     0.000,   1,1
  177,'1 ',1,   1,   1,   123.865,    36.714,     0.000,     0.000,     0.000,     0.000,   1,1
  178,'1 ',1,   1,   1,    64.264,    19.092,     0.000,     0.000,     0.000,     0.000,   1,1
  179,'1 ',1,   1,   1,     6.078,     1.670,     0.000,     0.000,     0.000,     0.000,   1,1
  180,'1 ',1,   1,   1,     9.177,     2.714,     0.000,     0.000,     0.000,     0.000,   1,1
  181,'1 ',1,   1,   1,     0.000,     0.000,     0.000,     0.000,     0.000,     0.000,   1,1
  182,'1 ',1,   1,   1,     0.000,     0.000,     0.000,     0.000,     0.000,     0.000,   1,1
  183,'1 ',1,   1,   1,     0.000,     0.000,     0.000,     0.000,     0.000,     0.000,   1,1
  184,'1 ',1,   1,   1,     0.000,     0.000,     0.000,     0.000,     0.000,     0.000,   1,1
  185,'1 ',1,   1,   1,     0.000,     0.000,     0.000,     0.000,     0.000,     0.000,   1,1
  186,'1 ',1,   1,   1,     0.000,     0.000,     0.000,     0.000,     0.000,     0.000,   1,1
  187,'1 ',1,   1,   1,     0.000,     0.000,     0.000,     0.000,     0.000,     0.000,   1,1
  188,'1 ',1,   1,   1,     0.000,     0.000,     0.000,     0.000,     0.000,     0.000,   1,1
  189,'1 ',1,   1,   1,     0.000,     0.000,     0.000,     0.000,     0.000,     0.000,   1,1
  190,'1 ',1,   1,   1,     0.000,     0.000,     0.000,     0.000,     0.000,     0.000,   1,1
  191,'1 ',1,   1,   1,     0.000,     0.000,     0.000,     0.000,     0.000,     0.000,   1,1
  192,'1 ',1,   1,   1,     0.000,     0.000,     0.000,     0.000,     0.000,     0.000,   1,1
  193,'1 ',1,   1,   1,     0.000,     0.000,     0.000,     0.000,     0.000,     0.000,   1,1
  194,'1 ',1,   1,   1,     0.000,     0.000,     0.000,     0.000,     0.000,     0.000,   1,1
  195,'1 ',1,   1,   1,     0.000,     0.000,     0.000,     0.000,     0.000,     0.000,   1,1
  196,'1 ',1,   1,   1,     0.000,     0.000,     0.000,     0.000,     0.000,     0.000,   1,1
  197,'1 ',1,   1,   1,     0.000,     0.000,     0.000,     0.000,     0.000,     0.000,   1,1
  198,'1 ',1,   1,   1,     0.000,     0.000,     0.000,     0.000,     0.000,     0.000,   1,1
  199,'1 ',1,   1,   1,     0.000,     0.000,     0.000,     0.000,     0.000,     0.000,   1,1
  200,'1 ',1,   1,   1,     0.000,     0.000,     0.000,     0.000,     0.000,     0.000,   1,1
...
0 / END OF LOAD DATA, BEGIN FIXED SHUNT DATA
0 / END OF FIXED SHUNT DATA, BEGIN GENERATOR DATA
    1,'1 ',     3.594,   -52.000,    35.000,   -52.000,1.02000,    0,   100.000,   0.00000,   1.00000,   0.00000,   0.00000,1.00000,1,  100.0,   338.000,     3.000,   1,1.0000,   0,1.0000,   0,1.0000,   0,1.0000,1, 1.0000
    3,'1 ',   357.008,   -25.502,   157.000,  -141.000,1.02000,    0,   100.000,   0.00000,   1.00000,   0.00000,   0.00000,1.00000,1,  100.0,   686.000,   298.000,   1,1.0000,   0,1.0000,   0,1.0000,   0,1.0000,0, 1.0000
    7,'1 ',   166.524,   105.209,   169.000,  -138.000,1.02000,    0,   100.000,   0.00000,   1.00000,   0.00000,   0.00000,1.00000,1,  100.0,   674.000,   139.000,   1,1.0000,   0,1.0000,   0,1.0000,   0,1.0000,0, 1.0000
    8,'1 ',   226.425,    68.794,   240.000,  -125.000,1.02000,    0,   100.000,   0.00000,   1.00000,   0.00000,   0.00000,1.00000,1,  100.0,   611.000,   189.000,   1,1.0000,   0,1.0000,   0,1.0000,   0,1.0000,0, 1.0000
   10,'1 ',  1866.942,   109.783,   594.000,  -242.000,1.02000,    0,   100.000,   0.00000,   1.00000,   0.00000,   0.00000,1.00000,1,  100.0,  2271.000,  1406.000,   1,1.0000,   0,1.0000,   0,1.0000,   0,1.0000,0, 1.0000
   24,'1 ',   345.028,   114.000,   114.000,  -108.000,1.02000,    0,   100.000,   0.00000,   1.00000,   0.00000,   0.00000,1.00000,1,  100.0,   541.000,   288.000,   1,1.0000,   0,1.0000,   0,1.0000,   0,1.0000,0, 1.0000
   26,'1 ',   143.762,   -33.864,    81.000,   -66.000,1.02000,    0,   100.000,   0.00000,   1.00000,   0.00000,   0.00000,1.00000,1,  100.0,   300.000,   120.000,   1,1.0000,   0,1.0000,   0,1.0000,   0,1.0000,0, 1.0000
   28,'1 ',   258.771,    67.992,   181.000,  -120.000,1.02000,    0,   100.000,   0.00000,   1.00000,   0.00000,   0.00000,1.00000,1,  100.0,   592.000,   216.000,   1,1.0000,   0,1.0000,   0,1.0000,   0,1.0000,0, 1.0000
   30,'1 ',   149.752,   -59.000,    89.000,   -59.000,1.02000,    0,   100.000,   0.00000,   1.00000,   0.00000,   0.00000,1.00000,1,  100.0,   263.000,   125.000,   1,1.0000,   0,1.0000,   0,1.0000,   0,1.0000,0, 1.0000
   31,'1 ',   241.000,     6.913,   179.000,  -165.000,1.02000,    0,   100.000,   0.00000,   1.00000,   0.00000,   0.00000,1.00000,0,  100.0,   800.000,   241.000,   1,1.0000,   0,1.0000,   0,1.0000,   0,1.0000,0, 1.0000
   32,'1 ',   195.276,     3.666,   171.000,  -140.000,1.02000,    0,   100.000,   0.00000,   1.00000,   0.00000,   0.00000,1.00000,1,  100.0,   683.000,   163.000,   1,1.0000,   0,1.0000,   0,1.0000,   0,1.0000,0, 1.0000
   33,'1 ',   454.047,   184.674,   200.000,  -134.000,1.02000,    0,   100.000,   0.00000,   1.00000,   0.00000,   0.00000,1.00000,1,  100.0,   664.000,   379.000,   1,1.0000,   0,1.0000,   0,1.0000,   0,1.0000,0, 1.0000
   34,'1 ',   353.414,   100.116,   391.000,  -136.000,1.02000,    0,   100.000,   0.00000,   1.00000,   0.00000,   0.00000,1.00000,1,  100.0,  1237.000,   295.000,   1,1.0000,   0,1.0000,   0,1.0000,   0,1.0000,0, 1.0000
   35,'1 ',  1106.964,   200.000,   200.000,  -151.000,1.02000,    0,   100.000,   0.00000,   1.00000,   0.00000,   0.00000,1.00000,1,  100.0,  1386.000,   924.000,   1,1.0000,   0,1.0000,   0,1.0000,   0,1.0000,0, 1.0000
   36,'1 ',   167.722,    55.501,   142.000,  -117.000,1.02000,    0,   100.000,   0.00000,   1.00000,   0.00000,   0.00000,1.00000,1,  100.0,   588.000,   140.000,   1,1.0000,   0,1.0000,   0,1.0000,   0,1.0000,0, 1.0000
   37,'1 ',   100.000,    -9.768,   213.000,  -116.000,1.02000,    0,   100.000,   0.00000,   1.00000,   0.00000,   0.00000,1.00000,0,  100.0,   567.000,   100.000,   1,1.0000,   0,1.0000,   0,1.0000,   0,1.0000,0, 1.0000
   38,'1 ',   208.000,   -28.057,   202.000,  -178.000,1.02000,    0,   100.000,   0.00000,   1.00000,   0.00000,   0.00000,1.00000,0,  100.0,   872.000,   208.000,   1,1.0000,   0,1.0000,   0,1.0000,   0,1.0000,0, 1.0000
   49,'1 ',   383.364,    64.368,   164.000,  -129.000,1.02000,    0,   100.000,   0.00000,   1.00000,   0.00000,   0.00000,1.00000,1,  100.0,   607.000,   320.000,   1,1.0000,   0,1.0000,   0,1.0000,   0,1.0000,0, 1.0000
   52,'1 ',   194.078,    98.339,   630.000,  -166.000,1.02000,    0,   100.000,   0.00000,   1.00000,   0.00000,   0.00000,1.00000,1,  100.0,  1642.000,   162.000,   1,1.0000,   0,1.0000,   0,1.0000,   0,1.0000,0, 1.0000
   54,'1 ',   249.187,     5.306,   198.000,  -113.000,1.02000,    0,   100.000,   0.00000,   1.00000,   0.00000,   0.00000,1.00000,1,  100.0,   546.000,   208.000,   1,1.0000,   0,1.0000,   0,1.0000,   0,1.0000,0, 1.0000
   56,'1 ',   498.374,   111.227,   151.000,  -150.000,1.02000,    0,   100.000,   0.00000,   1.00000,   0.00000,   0.00000,1.00000,1,  100.0,   728.000,   416.000,   1,1.0000,   0,1.0000,   0,1.0000,   0,1.0000,0, 1.0000
   69,'1 ',   178.504,    84.972,   150.000,  -103.000,1.02000,    0,   100.000,   0.00000,   1.00000,   0.00000,   0.00000,1.00000,1,  100.0,   520.000,   149.000,   1,1.0000,   0,1.0000,   0,1.0000,   0,1.0000,0, 1.0000
   72,'1 ',   101.831,    79.000,    79.000,   -57.000,1.02000,    0,   100.000,   0.00000,   1.00000,   0.00000,   0.00000,1.00000,1,  100.0,   263.000,    85.000,   1,1.0000,   0,1.0000,   0,1.0000,   0,1.0000,0, 1.0000
   76,'1 ',   521.136,   130.486,   278.000,  -182.000,1.02000,    0,   100.000,   0.00000,   1.00000,   0.00000,   0.00000,1.00000,1,  100.0,   882.000,   435.000,   1,1.0000,   0,1.0000,   0,1.0000,   0,1.0000,0, 1.0000
   78,'1 ',   155.742,   -62.000,    52.000,   -62.000,1.02000,    0,   100.000,   0.00000,   1.00000,   0.00000,   0.00000,1.00000,1,  100.0,   288.000,   130.000,   1,1.0000,   0,1.0000,   0,1.0000,   0,1.0000,0, 1.0000
   80,'1 ',   135.375,   -67.000,   175.000,   -67.000,1.02000,    0,   100.000,   0.00000,   1.00000,   0.00000,   0.00000,1.00000,1,  100.0,   578.000,   113.000,   1,1.0000,   0,1.0000,   0,1.0000,   0,1.0000,0, 1.0000
   82,'1 ',   210.850,   -58.000,   119.000,   -58.000,1.02000,    0,   100.000,   0.00000,   1.00000,   0.00000,   0.00000,1.00000,1,  100.0,   313.000,   176.000,   1,1.0000,   0,1.0000,   0,1.0000,   0,1.0000,0, 1.0000
   84,'1 ',   169.000,   -73.241,   194.000,  -180.000,1.02000,    0,   100.000,   0.00000,   1.00000,   0.00000,   0.00000,1.00000,0,  100.0,   888.000,   169.000,   1,1.0000,   0,1.0000,   0,1.0000,   0,1.0000,0, 1.0000
  103,'1 ',   249.187,   180.167,   200.000,  -188.000,1.02000,    0,   100.000,   0.00000,   1.00000,   0.00000,   0.00000,1.00000,1,  100.0,   916.000,   208.000,   1,1.0000,   0,1.0000,   0,1.0000,   0,1.0000,0, 1.0000
  120,'1 ',   161.000,   128.794,   196.000,  -172.000,1.02000,    0,   100.000,   0.00000,   1.00000,   0.00000,   0.00000,1.00000,0,  100.0,   845.000,   161.000,   1,1.0000,   0,1.0000,   0,1.0000,   0,1.0000,0, 1.0000
  128,'1 ',   215.642,    13.830,   104.000,   -76.000,1.02000,    0,   100.000,   0.00000,   1.00000,   0.00000,   0.00000,1.00000,1,  100.0,   378.000,   180.000,   1,1.0000,   0,1.0000,   0,1.0000,   0,1.0000,0, 1.0000
  130,'1 ',   137.772,    83.294,    87.000,   -56.000,1.02000,    0,   100.000,   0.00000,   1.00000,   0.00000,   0.00000,1.00000,1,  100.0,   267.000,   115.000,   1,1.0000,   0,1.0000,   0,1.0000,   0,1.0000,0, 1.0000
  141,'1 ',  1050.658,   200.000,   200.000,  -174.000,1.02000,    0,   100.000,   0.00000,   1.00000,   0.00000,   0.00000,1.00000,1,  100.0,  1691.000,   877.000,   1,1.0000,   0,1.0000,   0,1.0000,   0,1.0000,0, 1.0000
  143,'1 ',   185.692,    80.674,    99.000,   -60.000,1.02000,    0,   100.000,   0.00000,   1.00000,   0.00000,   0.00000,1.00000,1,  100.0,   303.000,   155.000,   1,1.0000,   0,1.0000,   0,1.0000,   0,1.0000,0, 1.0000
  146,'1 ',   359.404,   137.000,   137.000,  -122.000,1.02000,    0,   100.000,   0.00000,   1.00000,   0.00000,   0.00000,1.00000,1,  100.0,   607.000,   300.000,   1,1.0000,   0,1.0000,   0,1.0000,   0,1.0000,0, 1.0000
  149,'1 ',   222.830,    39.263,    73.000,   -57.000,1.02000,    0,   100.000,   0.00000,   1.00000,   0.00000,   0.00000,1.00000,1,  100.0,   274.000,   186.000,   1,1.0000,   0,1.0000,   0,1.0000,   0,1.0000,0, 1.0000
  157,'1 ',   345.028,    75.975,   173.000,  -110.000,1.02000,    0,   100.000,   0.00000,   1.00000,   0.00000,   0.00000,1.00000,1,  100.0,   521.000,   288.000,   1,1.0000,   0,1.0000,   0,1.0000,   0,1.0000,0, 1.0000
  162,'1 ',   275.543,   113.770,   176.000,  -130.000,1.02000,    0,   100.000,   0.00000,   1.00000,   0.00000,   0.00000,1.00000,1,  100.0,   636.000,   230.000,   1,1.0000,   0,1.0000,   0,1.0000,   0,1.0000,0, 1.0000
  165,'1 ',   936.846,   155.237,   402.000,  -141.000,1.02000,    0,   100.000,   0.00000,   1.00000,   0.00000,   0.00000,1.00000,1,  100.0,  1304.000,   782.000,   1,1.0000,   0,1.0000,   0,1.0000,   0,1.0000,0, 1.0000
  166,'1 ',   331.850,    94.642,   202.000,  -168.000,1.02000,    0,   100.000,   0.00000,   1.00000,   0.00000,   0.00000,1.00000,1,  100.0,   830.000,   277.000,   1,1.0000,   0,1.0000,   0,1.0000,   0,1.0000,0, 1.0000
  175,'1 ',   250.385,    42.509,   233.000,  -128.000,1.02000,    0,   100.000,   0.00000,   1.00000,   0.00000,   0.00000,1.00000,1,  100.0,   626.000,   209.000,   1,1.0000,   0,1.0000,   0,1.0000,   0,1.0000,0, 1.0000
  176,'1 ',   103.029,    62.776,    86.000,   -56.000,1.02000,    0,   100.000,   0.00000,   1.00000,   0.00000,   0.00000,1.00000,1,  100.0,   267.000,    86.000,   1,1.0000,   0,1.0000,   0,1.0000,   0,1.0000,0, 1.0000
0 / END OF GENERATOR DATA, BEGIN BRANCH DATA
    1,     2,'1 ', 0.00598, 0.12062,1.98515, 414.51, 414.51, 414.51,  0.00000,  0.00000,  0.00000,  0.00000,1,1, 239.2,   1,1.0000,   0,1.0000,   0,1.0000,   0,1.0000
    2,    39,'1 ', 0.00868, 0.06020,0.52937, 530.03, 530.03, 530.03,  0.00000,  0.00000,  0.00000,  0.00000,1,1,  86.8,   1,1.0000,   0,1.0000,   0,1.0000,   0,1.0000
    2,   139,'1 ', 0.00339, 0.02318,0.20974, 530.03, 530.03, 530.03,  0.00000,  0.00000,  0.00000,  0.00000,1,1,  33.9,   1,1.0000,   0,1.0000,   0,1.0000,   0,1.0000
    2,   181,'1 ', 0.00761, 0.05275,0.46393, 530.03, 530.03, 530.03,  0.00000,  0.00000,  0.00000,  0.00000,1,1,  76.1,   1,1.0000,   0,1.0000,   0,1.0000,   0,1.0000
    2,   201,'1 ', 0.00274, 0.01875,0.16965, 530.03, 530.03, 530.03,  0.00000,  0.00000,  0.00000,  0.00000,1,1,  27.4,   1,1.0000,   0,1.0000,   0,1.0000,   0,1.0000
    3,    18,'1 ', 0.00383, 0.15813,0.09685, 316.20, 316.20, 316.20,  0.00000,  0.00000,  0.00000,  0.00000,1,1,  60.3,   1,1.0000,   0,1.0000,   0,1.0000,   0,1.0000
    4,    75,'1 ', 0.01684, 0.03812,0.00951, 107.32, 107.32, 107.32,  0.00000,  0.00000,  0.00000,  0.00000,1,1,   9.2,   1,1.0000,   0,1.0000,   0,1.0000,   0,1.0000
    5,     8,'1 ', 0.00296, 0.03933,0.08406, 578.83, 578.83, 578.83,  0.00000,  0.00000,  0.00000,  0.00000,1,1,  27.9,   1,1.0000,   0,1.0000,   0,1.0000,   0,1.0000
    5,   184,'1 ', 0.04502, 0.11101,0.17939, 178.87, 178.87, 178.87,  0.00000,  0.00000,  0.00000,  0.00000,1,1,  68.6,   1,1.0000,   0,1.0000,   0,1.0000,   0,1.0000
    5,   207,'1 ', 0.00112, 0.01328,0.03027, 541.39, 541.39, 541.39,  0.00000,  0.00000,  0.00000,  0.00000,1,1,   9.7,   1,1.0000,   0,1.0000,   0,1.0000,   0,1.0000
    6,     7,'1 ', 0.06200, 0.14575,0.03365, 107.32, 107.32, 107.32,  0.00000,  0.00000,  0.00000,  0.00000,1,1,  34.0,   1,1.0000,   0,1.0000,   0,1.0000,   0,1.0000
    6,    70,'1 ', 0.03364, 0.07769,0.01859, 107.32, 107.32, 107.32,  0.00000,  0.00000,  0.00000,  0.00000,1,1,  18.5,   1,1.0000,   0,1.0000,   0,1.0000,   0,1.0000
    8,    54,'1 ', 0.00033, 0.00508,0.01216, 665.28, 665.28, 665.28,  0.00000,  0.00000,  0.00000,  0.00000,1,1,   3.8,   1,1.0000,   0,1.0000,   0,1.0000,   0,1.0000
  187,     9,'1 ', 0.00684, 0.04742,0.41703, 530.03, 530.03, 530.03,  0.00000,  0.00000,  0.00000,  0.00000,1,1,  68.4,   1,1.0000,   0,1.0000,   0,1.0000,   0,1.0000
   10,    11,'1 ', 0.00032, 0.00856,0.00495, 566.01, 566.01, 566.01,  0.00000,  0.00000,  0.00000,  0.00000,1,1,   3.2,   1,1.0000,   0,1.0000,   0,1.0000,   0,1.0000
   10,    70,'1 ', 0.00580, 0.06727,0.02063, 324.83, 324.83, 324.83,  0.00000,  0.00000,  0.00000,  0.00000,1,1,  18.1,   1,1.0000,   0,1.0000,   0,1.0000,   0,1.0000
   11,   173,'1 ', 0.01667, 0.12408,0.03486, 237.35, 237.35, 237.35,  0.00000,  0.00000,  0.00000,  0.00000,1,1,  31.9,   1,1.0000,   0,1.0000,   0,1.0000,   0,1.0000
  188,    13,'1 ', 0.00011, 0.00195,0.02003,1045.73,1045.73,1045.73,  0.00000,  0.00000,  0.00000,  0.00000,1,1,   3.0,   1,1.0000,   0,1.0000,   0,1.0000,   0,1.0000
   13,   190,'1 ', 0.00085, 0.01791,0.26779,1060.07,1060.07,1060.07,  0.00000,  0.00000,  0.00000,  0.00000,1,1,  33.9,   1,1.0000,   0,1.0000,   0,1.0000,   0,1.0000
   14,    15,'1 ', 0.03611, 0.08904,0.14388, 178.87, 178.87, 178.87,  0.00000,  0.00000,  0.00000,  0.00000,1,1,  55.0,   1,1.0000,   0,1.0000,   0,1.0000,   0,1.0000
   14,   177,'1 ', 0.01882, 0.06776,0.11459, 229.46, 229.46, 229.46,  0.00000,  0.00000,  0.00000,  0.00000,1,1,  42.5,   1,1.0000,   0,1.0000,   0,1.0000,   0,1.0000
   15,    61,'1 ', 0.00413, 0.02750,0.05200, 353.36, 353.36, 353.36,  0.00000,  0.00000,  0.00000,  0.00000,1,1,  18.4,   1,1.0000,   0,1.0000,   0,1.0000,   0,1.0000
  184,    15,'1 ', 0.00343, 0.04204,0.08894, 541.39, 541.39, 541.39,  0.00000,  0.00000,  0.00000,  0.00000,1,1,  29.7,   1,1.0000,   0,1.0000,   0,1.0000,   0,1.0000
   16,   149,'1 ', 0.01423, 0.04695,0.01231, 137.68, 137.68, 137.68,  0.00000,  0.00000,  0.00000,  0.00000,1,1,  11.6,   1,1.0000,   0,1.0000,   0,1.0000,   0,1.0000
   17,    18,'1 ', 0.05670, 0.19450,0.04709, 137.68, 137.68, 137.68,  0.00000,  0.00000,  0.00000,  0.00000,1,1,  46.1,   1,1.0000,   0,1.0000,   0,1.0000,   0,1.0000
   17,   145,'1 ', 0.04673, 0.10452,0.02669, 107.32, 107.32, 107.32,  0.00000,  0.00000,  0.00000,  0.00000,1,1,  25.6,   1,1.0000,   0,1.0000,   0,1.0000,   0,1.0000
   19,    96,'1 ', 0.05510, 0.12952,0.02990, 107.32, 107.32, 107.32,  0.00000,  0.00000,  0.00000,  0.00000,1,1,  30.2,   1,1.0000,   0,1.0000,   0,1.0000,   0,1.0000
   19,   105,'1 ', 0.00053, 0.01276,0.00724, 522.03, 522.03, 522.03,  0.00000,  0.00000,  0.00000,  0.00000,1,1,   4.7,   1,1.0000,   0,1.0000,   0,1.0000,   0,1.0000
   19,   110,'1 ', 0.00509, 0.02371,0.00609, 173.53, 173.53, 173.53,  0.00000,  0.00000,  0.00000,  0.00000,1,1,   5.8,   1,1.0000,   0,1.0000,   0,1.0000,   0,1.0000
   19,   118,'1 ', 0.00064, 0.01345,0.00755, 474.70, 474.70, 474.70,  0.00000,  0.00000,  0.00000,  0.00000,1,1,   4.9,   1,1.0000,   0,1.0000,   0,1.0000,   0,1.0000
   19,   175,'1 ', 0.05620, 0.25162,0.07017, 173.53, 173.53, 173.53,  0.00000,  0.00000,  0.00000,  0.00000,1,1,  64.5,   1,1.0000,   0,1.0000,   0,1.0000,   0,1.0000
   21,   129,'1 ', 0.00698, 0.03501,0.01005, 187.39, 187.39, 187.39,  0.00000,  0.00000,  0.00000,  0.00000,1,1,   9.1,   1,1.0000,   0,1.0000,   0,1.0000,   0,1.0000
   21,   130,'1 ', 0.00738, 0.06070,0.01884, 261.01, 261.01, 261.01,  0.00000,  0.00000,  0.00000,  0.00000,1,1,  16.4,   1,1.0000,   0,1.0000,   0,1.0000,   0,1.0000
   22,    23,'1 ', 0.01398, 0.03448,0.05572, 178.87, 178.87, 178.87,  0.00000,  0.00000,  0.00000,  0.00000,1,1,  21.3,   1,1.0000,   0,1.0000,   0,1.0000,   0,1.0000
   23,    24,'1 ', 0.04301, 0.10605,0.17137, 178.87, 178.87, 178.87,  0.00000,  0.00000,  0.00000,  0.00000,1,1,  65.6,   1,1.0000,   0,1.0000,   0,1.0000,   0,1.0000
   23,    90,'1 ', 0.00690, 0.02037,0.03648, 206.75, 206.75, 206.75,  0.00000,  0.00000,  0.00000,  0.00000,1,1,  13.2,   1,1.0000,   0,1.0000,   0,1.0000,   0,1.0000
   23,    91,'1 ', 0.01279, 0.05439,0.09557, 262.53, 262.53, 262.53,  0.00000,  0.00000,  0.00000,  0.00000,1,1,  35.1,   1,1.0000,   0,1.0000,   0,1.0000,   0,1.0000
   24,   177,'1 ', 0.00208, 0.01428,0.02528, 353.36, 353.36, 353.36,  0.00000,  0.00000,  0.00000,  0.00000,1,1,   9.2,   1,1.0000,   0,1.0000,   0,1.0000,   0,1.0000
   25,   133,'1 ', 0.00613, 0.04868,0.09258, 395.58, 395.58, 395.58,  0.00000,  0.00000,  0.00000,  0.00000,1,1,  32.6,   1,1.0000,   0,1.0000,   0,1.0000,   0,1.0000
   25,   168,'1 ', 0.01816, 0.04527,0.07160, 178.87, 178.87, 178.87,  0.00000,  0.00000,  0.00000,  0.00000,1,1,  27.7,   1,1.0000,   0,1.0000,   0,1.0000,   0,1.0000
   26,    42,'1 ', 0.00714, 0.04949,0.43522, 530.03, 530.03, 530.03,  0.00000,  0.00000,  0.00000,  0.00000,1,1,  71.4,   1,1.0000,   0,1.0000,   0,1.0000,   0,1.0000
   26,    43,'1 ', 0.00133, 0.00911,0.08245, 530.03, 530.03, 530.03,  0.00000,  0.00000,  0.00000,  0.00000,1,1,  13.3,   1,1.0000,   0,1.0000,   0,1.0000,   0,1.0000
   26,   202,'1 ', 0.01045, 0.07245,0.63716, 530.03, 530.03, 530.03,  0.00000,  0.00000,  0.00000,  0.00000,1,1, 104.5,   1,1.0000,   0,1.0000,   0,1.0000,   0,1.0000
   27,   160,'1 ', 0.02217, 0.05468,0.08835, 178.87, 178.87, 178.87,  0.00000,  0.00000,  0.00000,  0.00000,1,1,  33.8,   1,1.0000,   0,1.0000,   0,1.0000,   0,1.0000
   28,    77,'1 ', 0.06656, 0.15647,0.03612, 107.32, 107.32, 107.32,  0.00000,  0.00000,  0.00000,  0.00000,1,1,  36.5,   1,1.0000,   0,1.0000,   0,1.0000,   0,1.0000
   28,    88,'1 ', 0.00116, 0.01860,0.00608, 418.29, 418.29, 418.29,  0.00000,  0.00000,  0.00000,  0.00000,1,1,   5.1,   1,1.0000,   0,1.0000,   0,1.0000,   0,1.0000
   29,    84,'1 ', 0.00955, 0.09168,0.02681, 283.00, 283.00, 283.00,  0.00000,  0.00000,  0.00000,  0.00000,1,1,  24.0,   1,1.0000,   0,1.0000,   0,1.0000,   0,1.0000
   39,    43,'1 ', 0.00577, 0.04003,0.35199, 530.03, 530.03, 530.03,  0.00000,  0.00000,  0.00000,  0.00000,1,1,  57.7,   1,1.0000,   0,1.0000,   0,1.0000,   0,1.0000
   40,    43,'1 ', 0.00360, 0.02314,0.23770, 530.03, 530.03, 530.03,  0.00000,  0.00000,  0.00000,  0.00000,1,1,  36.0,   1,1.0000,   0,1.0000,   0,1.0000,   0,1.0000
  202,    41,'1 ', 0.00271, 0.01880,0.16536, 530.03, 530.03, 530.03,  0.00000,  0.00000,  0.00000,  0.00000,1,1,  27.1,   1,1.0000,   0,1.0000,   0,1.0000,   0,1.0000
   42,   167,'1 ', 0.00687, 0.04934,0.40438, 530.03, 530.03, 530.03,  0.00000,  0.00000,  0.00000,  0.00000,1,1,  68.7,   1,1.0000,   0,1.0000,   0,1.0000,   0,1.0000
   44,    55,'1 ', 0.00742, 0.02703,0.04470, 229.46, 229.46, 229.46,  0.00000,  0.00000,  0.00000,  0.00000,1,1,  16.8,   1,1.0000,   0,1.0000,   0,1.0000,   0,1.0000
   45,    52,'1 ', 0.00089, 0.00836,0.07659, 652.53, 652.53, 652.53,  0.00000,  0.00000,  0.00000,  0.00000,1,1,  12.3,   1,1.0000,   0,1.0000,   0,1.0000,   0,1.0000
  206,    45,'1 ', 0.00042, 0.00286,0.02611, 530.03, 530.03, 530.03,  0.00000,  0.00000,  0.00000,  0.00000,1,1,   4.2,   1,1.0000,   0,1.0000,   0,1.0000,   0,1.0000
   45,   212,'1 ', 0.00103, 0.00976,0.08940, 652.53, 652.53, 652.53,  0.00000,  0.00000,  0.00000,  0.00000,1,1,  14.3,   1,1.0000,   0,1.0000,   0,1.0000,   0,1.0000
   46,    47,'1 ', 0.01683, 0.10628,0.02894, 212.01, 212.01, 212.01,  0.00000,  0.00000,  0.00000,  0.00000,1,1,  26.9,   1,1.0000,   0,1.0000,   0,1.0000,   0,1.0000
   47,    63,'1 ', 0.03810, 0.08957,0.02068, 107.32, 107.32, 107.32,  0.00000,  0.00000,  0.00000,  0.00000,1,1,  20.9,   1,1.0000,   0,1.0000,   0,1.0000,   0,1.0000
   48,   150,'1 ', 0.00352, 0.02444,0.21489, 530.03, 530.03, 530.03,  0.00000,  0.00000,  0.00000,  0.00000,1,1,  35.2,   1,1.0000,   0,1.0000,   0,1.0000,   0,1.0000
  182,    48,'1 ', 0.00342, 0.02370,0.20841, 530.03, 530.03, 530.03,  0.00000,  0.00000,  0.00000,  0.00000,1,1,  34.2,   1,1.0000,   0,1.0000,   0,1.0000,   0,1.0000
   49,    65,'1 ', 0.00180, 0.03771,0.02118, 474.70, 474.70, 474.70,  0.00000,  0.00000,  0.00000,  0.00000,1,1,  13.8,   1,1.0000,   0,1.0000,   0,1.0000,   0,1.0000
   50,    65,'1 ', 0.00526, 0.03751,0.01148, 237.35, 237.35, 237.35,  0.00000,  0.00000,  0.00000,  0.00000,1,1,  10.1,   1,1.0000,   0,1.0000,   0,1.0000,   0,1.0000
   51,    68,'1 ', 0.00406, 0.03734,0.01192, 283.00, 283.00, 283.00,  0.00000,  0.00000,  0.00000,  0.00000,1,1,  10.2,   1,1.0000,   0,1.0000,   0,1.0000,   0,1.0000
   51,    72,'1 ', 0.00071, 0.00719,0.00234, 304.04, 304.04, 304.04,  0.00000,  0.00000,  0.00000,  0.00000,1,1,   2.0,   1,1.0000,   0,1.0000,   0,1.0000,   0,1.0000
  183,    52,'1 ', 0.00205, 0.02164,0.20301, 707.51, 707.51, 707.51,  0.00000,  0.00000,  0.00000,  0.00000,1,1,  32.1,   1,1.0000,   0,1.0000,   0,1.0000,   0,1.0000
...